# generated using pymatgen
data_LiCoO2
_symmetry_space_group_name_H-M   P2/m
_cell_length_a   5.74536859
_cell_length_b   2.84289896
_cell_length_c   36.44549002
_cell_angle_alpha   90.00000000
_cell_angle_beta   93.68018595
_cell_angle_gamma   90.00000000
_symmetry_Int_Tables_number   10
_chemical_formula_structural   LiCoO2
_chemical_formula_sum   'Li5 Co5 O10'
_cell_volume   594.05495220
_cell_formula_units_Z   5
loop_
 _symmetry_equiv_pos_site_id
 _symmetry_equiv_pos_as_xyz
  1  'x, y, z'
  2  '-x, -y, -z'
  3  '-x, y, -z'
  4  'x, -y, z'
loop_
 _atom_site_type_symbol
 _atom_site_label
 _atom_site_symmetry_multiplicity
 _atom_site_fract_x
 _atom_site_fract_y
 _atom_site_fract_z
 _atom_site_occupancy
  Li  Li0  2  0.22222222  0.00000000  0.44444444  1
  Li  Li1  2  0.44444444  0.50000000  0.38888889  1
  Li  Li2  1  0.00000000  0.50000000  0.50000000  1
  Co  Co3  2  0.05555556  0.50000000  0.61111111  1
  Co  Co4  2  0.27777778  0.00000000  0.55555556  1
  Co  Co5  1  0.50000000  0.50000000  0.50000000  1
  O  O6  2  0.04976078  0.50000000  0.55786956  1
  O  O7  2  0.17246144  0.00000000  0.38657489  1
  O  O8  2  0.27198300  0.00000000  0.50231400  1
  O  O9  2  0.28357256  0.00000000  0.60879711  1
  O  O10  2  0.49420522  0.50000000  0.44675844  1
