# generated using pymatgen
data_LiCoO2
_symmetry_space_group_name_H-M   P2/m
_cell_length_a   5.74536859
_cell_length_b   2.84289896
_cell_length_c   28.39461507
_cell_angle_alpha   90.00000000
_cell_angle_beta   94.96577446
_cell_angle_gamma   90.00000000
_symmetry_Int_Tables_number   10
_chemical_formula_structural   LiCoO2
_chemical_formula_sum   'Li5 Co5 O10'
_cell_volume   462.04274060
_cell_formula_units_Z   5
loop_
 _symmetry_equiv_pos_site_id
 _symmetry_equiv_pos_as_xyz
  1  'x, y, z'
  2  '-x, -y, -z'
  3  '-x, y, -z'
  4  'x, -y, z'
loop_
 _atom_site_type_symbol
 _atom_site_label
 _atom_site_symmetry_multiplicity
 _atom_site_fract_x
 _atom_site_fract_y
 _atom_site_fract_z
 _atom_site_occupancy
  Li  Li0  2  0.07142857  0.50000000  0.64285714  1
  Li  Li1  2  0.28571429  0.00000000  0.57142857  1
  Li  Li2  1  0.50000000  0.50000000  0.50000000  1
  Co  Co3  2  0.21428571  0.00000000  0.42857143  1
  Co  Co4  2  0.42857143  0.50000000  0.35714286  1
  Co  Co5  1  0.00000000  0.50000000  0.50000000  1
  O  O6  2  0.01340071  0.50000000  0.56845343  1
  O  O7  2  0.20088500  0.00000000  0.36011800  1
  O  O8  2  0.22768643  0.00000000  0.49702486  1
  O  O9  2  0.34374214  0.00000000  0.64583229  1
  O  O10  2  0.44197214  0.50000000  0.42559629  1
